/batch
/config,noeldb,1     ! force off writing results to database
*get,_wallstrt,active,,time,wall
! ANSYS input file written by Workbench version 19.2 RELEASE
! File used for geometry attach: F:\abhijeet_files\dp0\SYS\DM\SYS.agdb
/title,abhijeet--Static Structural (A5)
*DIM,_wb_ProjectScratch_dir,string,248
_wb_ProjectScratch_dir(1) = 'F:\_ProjectScratch\Scr77A4\'
*DIM,_wb_SolverFiles_dir,string,248
_wb_SolverFiles_dir(1) = 'F:\abhijeet_files\dp0\SYS\MECH\'
*DIM,_wb_userfiles_dir,string,248
_wb_userfiles_dir(1) = 'F:\abhijeet_files\user_files\'
/com,--- Data in consistent BIN units. See Solving Units in the help system for more information.
/units,BIN
/nopr
/wb,file,start              !  signify a WB generated input file
/prep7
! Turn off shape checking because checks already performed inside WB mesher.
! See help system for more information.
SHPP,OFF,,NOWARN
/nolist
etcon,set             ! allow ANSYS to choose best KEYOP's for 180x elements
/com,*********** Nodes for the whole assembly ***********
nblock,3,,16041
(1i9,3e20.9e3)
        1     1.462523569E-01     2.446593887E-01     0.000000000E+00
        2     1.111994455E+00     1.359478605E+00     0.000000000E+00
        3     4.294540439E-01     1.502226405E-01     0.000000000E+00
        4     2.449773531E-01     4.446965755E-01     0.000000000E+00
        5     7.431928083E-01     3.713857187E-01     0.000000000E+00
        6     1.605930942E+00     1.181086715E+00     0.000000000E+00
        7     1.716059919E+00     1.180781185E+00     0.000000000E+00
        8     1.769782095E+00     1.180840228E+00     0.000000000E+00
        9     1.929572397E+00     1.180871080E+00     0.000000000E+00
       10     1.982688109E+00     1.180832177E+00     0.000000000E+00
       11     2.035586777E+00     1.180793692E+00     0.000000000E+00
       12     2.141716082E+00     1.180669882E+00     0.000000000E+00
       13     2.194143676E+00     1.180496542E+00     0.000000000E+00
       14     2.246923604E+00     1.180335481E+00     0.000000000E+00
       15     2.352404083E+00     1.180377002E+00     0.000000000E+00
       16     2.405585478E+00     1.180453332E+00     0.000000000E+00
       17     2.458461433E+00     1.180568213E+00     0.000000000E+00
       18     2.510980445E+00     1.180694386E+00     0.000000000E+00
       19     2.616801249E+00     1.180616745E+00     0.000000000E+00
       20     2.669803210E+00     1.180565743E+00     0.000000000E+00
! ... 14564 like lines cut
/wb,elem,start            !  set before creation of elements
/com,*********** Elements for Body 1 "Surface Body" ***********
et,1,183
keyo,1,3,3
eblock,19,solid,,4764
(19i9)
        1        1        1        1        0        0        0        0        8        0        1     4135     2399     2586     2586    11136    11134     2586    11605
        1        1        1        1        0        0        0        0        8        0        2     1491     1423     1548     1548     8647     8648     1548     8823
        1        1        1        1        0        0        0        0        8        0        3      123      166      163      163     5516     5616      163     5515
        1        1        1        1        0        0        0        0        8        0        4     4587     4610     3074     3074    14208    14205     3074    14204
        1        1        1        1        0        0        0        0        8        0        5     3246     4614     3069     3069    14181    14182     3069    12716
        1        1        1        1        0        0        0        0        8        0        6     4587     4594     3493     3493    14180    14189     3493    14207
        1        1        1        1        0        0        0        0        8        0        7     2304     2302     2054        5    10904    10280     5193     5195
        1        1        1        1        0        0        0        0        8        0        8     1975     2054     2045     1824    10072    10257     9693     9692
        1        1        1        1        0        0        0        0        8        0        9     2128        5     2054     1975     5194     5193    10072    10073
        1        1        1        1        0        0        0        0        8        0       10      123     4022     4108     3536     5519    14012    13537     5518
        1        1        1        1        0        0        0        0        8        0       11     4022      123      250     4440     5519     5517     5816    14013
        1        1        1        1        0        0        0        0        8        0       12      123      163      164      250     5515     5615     5617     5517
        1        1        1        1        0        0        0        0        8        0       13        2      296     3682      339     5183     5925     6033     5184
        1        1        1        1        0        0        0        0        8        0       14      385      296        2     3792     5924     5183     5186     6142
        1        1        1        1        0        0        0        0        8        0       15     3792        2     3653      435     5186     5185     6270     6271
        1        1        1        1        0        0        0        0        8        0       16     3653        2      339      436     5185     5184     6032     6274
        1        1        1        1        0        0        0        0        8        0       17      169      254     3682      212     5629     5825     5730     5628
        1        1        1        1        0        0        0        0        8        0       18     3682      254     4049      339     5825     5826     6034     6033
        1        1        1        1        0        0        0        0        8        0       19     3682      296      211      212     5925     5729     5728     5730
        1        1        1        1        0        0        0        0        8        0       20     2305     2304        5     2128    10909     5195     5194    10464
! ... 4745 like lines cut
!Material Id = {C5C3C160-9DD4-4E08-9E1A-DADB1BDFE9B6}
/wb,elem,end               !  done creating elements
/com,*********** Send User Defined Coordinate System(s) ***********
csys,0
toffst,459.67,  ! Temperature offset from absolute zero
/com,*********** Set Reference Temperature ***********
tref,71.6
/wb,mat,start              !  starting to send materials
/com,*********** Send Materials ***********
MP,EX,1,4206.09439370942,	! slinch s^-2 in^-1
MP,NUXY,1,0.3,

/wb,mat,end                !  done sending materials
/com,*********** Send Sheet Properties ***********
r,1,1.

!************************* Model Summary ********************
!Surface Body,	Cornellium,	matid,	1
!************************* End Model Summary ********************
! get the diagonal of the bounding box. Needed later for other things
*get,_xmin,node,,mnloc,x
*get,_ymin,node,,mnloc,y
*get,_zmin,node,,mnloc,z
*get,_xmax,node,,mxloc,x
*get,_ymax,node,,mxloc,y
*get,_zmax,node,,mxloc,z
_ASMDIAG=(_xmax-_xmin)*(_xmax-_xmin)+(_ymax-_ymin)*(_ymax-_ymin)+(_zmax-_zmin)*(_zmax-_zmin)
_ASMDIAG=SQRT(_ASMDIAG)
/wb,contact,start          !  starting to send contact
/wb,contact,end            !  done creating contacts
/golist
/wb,load,start             !  starting to send loads
/com,********* Frictionless Supports X *********
CMBLOCK,_FRICSUX,NODE,       87
(8i10)
      4615      4623      4627      4628      4629      4630      4631      4632
      4633      4634      4635      4636      4637      4638      4639      4640
      4641      4642      4643      4644      4645      4646      4647      4648
      4649      4650      4651      4652      4653      4654      4655      4656
      4657      4658      4659      4660      4661      4662      4663      4664
      4665      4666      4762      4909     14289     14291     14310     14311
     14312     14313     14314     14315     14316     14317     14318     14319
     14320     14321     14322     14323     14324     14325     14326     14327
     14328     14329     14330     14331     14332     14333     14334     14335
     14336     14337     14338     14339     14340     14341     14342     14343
     14344     14345     14346     14347     14348     14349     14444
cmsel,s,_FRICSUX
d,all,ux,0
nsel,all
/com,********* Frictionless Supports Y *********
CMBLOCK,_FRICSUY,NODE,      183
(8i10)
      4616      4625      4813      4814      4815      4816      4817      4818
      4819      4820      4821      4822      4823      4824      4825      4826
      4827      4828      4829      4830      4831      4832      4833      4834
      4835      4836      4837      4838      4839      4840      4841      4842
      4843      4844      4845      4846      4847      4848      4849      4850
      4851      4852      4853      4854      4855      4856      4857      4858
      4859      4860      4861      4862      4863      4864      4865      4866
      4867      4868      4869      4870      4871      4872      4873      4874
      4875      4876      4877      4878      4879      4880      4881      4882
      4883      4884      4885      4886      4887      4888      4889      4890
      4891      4892      4893      4894      4895      4896      4897      4898
      4899      4900      4901      4910     14305     14306     14308     14309
     14496     14497     14498     14499     14500     14501     14502     14503
     14504     14505     14506     14507     14508     14509     14510     14511
     14512     14513     14514     14515     14516     14517     14518     14519
     14520     14521     14522     14523     14524     14525     14526     14527
     14528     14529     14530     14531     14532     14533     14534     14535
     14536     14537     14538     14539     14540     14541     14542     14543
     14544     14545     14546     14547     14548     14549     14550     14551
     14552     14553     14554     14555     14556     14557     14558     14559
     14560     14561     14562     14563     14564     14565     14566     14567
     14568     14569     14570     14571     14572     14573     14574     14575
     14576     14577     14578     14579     14580     14581     14583
cmsel,s,_FRICSUY
d,all,uy,0
nsel,all
/com,********** Rotational Supports Z **********
CMBLOCK,_ROTSUZ ,NODE,      270
(8i10)
      4615      4616      4623      4625      4627      4628      4629      4630
      4631      4632      4633      4634      4635      4636      4637      4638
      4639      4640      4641      4642      4643      4644      4645      4646
      4647      4648      4649      4650      4651      4652      4653      4654
      4655      4656      4657      4658      4659      4660      4661      4662
      4663      4664      4665      4666      4762      4813      4814      4815
      4816      4817      4818      4819      4820      4821      4822      4823
      4824      4825      4826      4827      4828      4829      4830      4831
      4832      4833      4834      4835      4836      4837      4838      4839
      4840      4841      4842      4843      4844      4845      4846      4847
      4848      4849      4850      4851      4852      4853      4854      4855
      4856      4857      4858      4859      4860      4861      4862      4863
      4864      4865      4866      4867      4868      4869      4870      4871
      4872      4873      4874      4875      4876      4877      4878      4879
      4880      4881      4882      4883      4884      4885      4886      4887
      4888      4889      4890      4891      4892      4893      4894      4895
      4896      4897      4898      4899      4900      4901      4909      4910
     14289     14291     14305     14306     14308     14309     14310     14311
     14312     14313     14314     14315     14316     14317     14318     14319
     14320     14321     14322     14323     14324     14325     14326     14327
! ... 14 like lines cut
cmsel,s,_ROTSUZ
d,all,rotz,0
nsel,all
/com,*********** Define Pressure Using Surface Effect Elements ***********
et,2,153
keyop,2,3,10   !get plane stress option and thickness from underlying element
eblock,10,,,50
(15i9)
     4765        2        2        2        0     4812     4763    14495
     4766        2        2        2        0     4763     4764    14446
     4767        2        2        2        0     4764     4765    14447
     4768        2        2        2        0     4765     4766    14448
     4769        2        2        2        0     4766     4767    14449
     4770        2        2        2        0     4767     4768    14450
     4771        2        2        2        0     4768     4769    14451
     4772        2        2        2        0     4769     4770    14452
     4773        2        2        2        0     4770     4771    14453
     4774        2        2        2        0     4771     4772    14454
     4775        2        2        2        0     4772     4773    14455
     4776        2        2        2        0     4773     4774    14456
     4777        2        2        2        0     4774     4775    14457
     4778        2        2        2        0     4775     4776    14458
     4779        2        2        2        0     4776     4777    14459
     4780        2        2        2        0     4777     4778    14460
     4781        2        2        2        0     4778     4779    14461
     4782        2        2        2        0     4779     4780    14462
     4783        2        2        2        0     4780     4781    14463
     4784        2        2        2        0     4781     4782    14464
! ... 31 like lines cut
esel,s,type,,2
esel,all
esel,all
/gst,on,on
fini
*get,_numnode,node,0,count
*get,_numelem,elem,0,count
*get, _MAXELEMNUM, elem, 0, NUM, MAX
*get, _MAXNODENUM, node, 0, NUM, MAX
*get, _MAXELEMTYPE, etyp, 0, NUM, MAX
*get, _MAXREALCONST, real, 0, NUM, MAX
/go
/wb,load,end               !  done creating loads
/com,--- Number of total nodes = %_numnode%
/com,--- Number of contact elements = 50
/com,--- Number of spring elements = 0
/com,--- Number of bearing elements = 0
/com,--- Number of solid elements = 4764
/com,--- Number of condensed parts = 0
/com,--- Number of total elements = %_numelem%
*get,_wallbsol,active,,time,wall
/com,****************************************************************************
/com,*************************    SOLUTION       ********************************
/com,****************************************************************************
/solu
antype,0                   ! static analysis
eqsl,sparse,,,,,1
cntr,print,1               ! print out contact info and also make no initial contact an error
dmpoption,emat,no             ! Don't combine emat file for DANSYS
dmpoption,esav,no             ! Don't combine esav file for DANSYS
nldiag,cont,iter           ! print out contact info each equilibrium iteration
rescontrol,,none                 ! Do not keep any restart files
/com,****************************************************
/com,******************* SOLVE FOR LS 1 OF 1 ****************
esel,s,type,,2
nsle
sf,all,pres,-999999.999864636
nsel,all
esel,all
esel,all
/nopr
/gopr
nsub,1,1,1
time,1.
outres,erase
outres,all,none
outres,nsol,all,
outres,rsol,all
outres,strs,all,
outres,epel,all,
outres,eppl,all,
stabilize,off                   ! Stabilization turned OFF by user
! *********** WB SOLVE COMMAND ***********
! check interactive state
*get,ANSINTER_,active,,int
*if,ANSINTER_,ne,0,then
/eof
*endif
solve
/com *************** Write FE CONNECTORS ********* 
CEWRITE,file,ce,,INTE
/com,****************************************************
/com,*************** FINISHED SOLVE FOR LS 1 *************
*get,_wallasol,active,,time,wall
/nopr
*get,_numnode,node,0,count
*get,_numelem,elem,0,count
*get, _MAXELEMNUM, elem, 0, NUM, MAX
*get, _MAXNODENUM, node, 0, NUM, MAX,,,INTERNAL
*get, _MAXELEMTYPE, etyp, 0, NUM, MAX
*get, _MAXREALCONST, real, 0, NUM, MAX
/gopr
/post1
xmlo,ENCODING,ISO-8859-1
xmlo,parm
/xml,parm,xml
fini
/gopr
*get,_walldone,active,,time,wall
_preptime=(_wallbsol-_wallstrt)*3600
_solvtime=(_wallasol-_wallbsol)*3600
_posttime=(_walldone-_wallasol)*3600
_totaltim=(_walldone-_wallstrt)*3600
/wb,file,end               ! done with WB generated input
